23
Coordinates from ORCA-job P3HT-r2SCAN-3c-DEF2-TZVPD-TRIMERO
  C   -2.48850290168167     -0.93491219753412      0.00039883914761
  C   -1.12037202132057     -0.90719534751560     -0.00053666170601
  C   -0.59986080400135      0.40630249745087     -0.00022624098881
  C   -1.57742245397612      1.38071147744613      0.00111002429691
  S   -3.14994130419830      0.64797209359664      0.00086730032169
  H   -3.14029342318574     -1.79729417349559      0.00052826904239
  H   -0.50854177108571     -1.80128118592987     -0.00123718442515
  H   0.45964607027564      0.63624432601985     -0.00065205457530
  C   -1.42660560316073      2.81123545309607      0.00206157202971
  C   -2.40100298003632      3.78801636914175      0.00288825487253
  S   0.14917250406563      3.53846297174331      0.00211489667975
  C   -1.88514917270999      5.09634920246977      0.00379397753906
  H   -3.46097628086717      3.56004185450464      0.00292956448471
  C   -0.50637552426463      5.14540244958278      0.00344155791433
  H   -2.50435955297163      5.98636747024294      0.00461201679081
  C   0.35951028724819      6.29409259079077      0.00409395820029
  C   1.73899226571125      6.33897885297701      0.00377398998144
  S   -0.28957752380288      7.90296871825304      0.00594845162239
  C   2.25522975806330      7.65414591383722      0.00446951892683
  H   2.35632027216302      5.44771093222232      0.00285008300770
  C   1.27427085817164      8.60825609525637      0.00552086700294
  H   3.31262634371187      7.88992447523529      0.00416286491674
  H   1.38651295785227      9.68339916060837      0.00618613491744
