37
Coordinates from ORCA-job P3HT-r2SCAN-3c-DEF2-TZVPD-PENTAMERO
  C   -2.50780262705990     -0.96006133385016     -0.00015775113244
  C   -1.12797868402283     -0.90699213749396     -0.00035360428582
  C   -0.61540039220397      0.40067696773846     -0.00016294330941
  C   -1.59361520974697      1.37720855105810      0.00020878626370
  S   -3.16883810067153      0.64474971479761      0.00057859440973
  H   -0.50687748946311     -1.79569850365595     -0.00070769028657
  H   0.44401144888536      0.63111619602542     -0.00035505686131
  C   -1.44505678160484      2.80173214980624      0.00039847122291
  C   -2.42419038792681      3.77795818226254      0.00071134586536
  S   0.13017715710959      3.53434305595880     -0.00012655137414
  C   -1.91392608021170      5.08532861372147      0.00144578609509
  H   -3.48330747085530      3.54613633204695      0.00081965566442
  C   -0.53243106316434      5.14029109576583      0.00171257519941
  H   -2.53598416689402      5.97332955834794      0.00218412454142
  C   0.32306916440387      6.28900017395573      0.00297112020049
  C   1.70409787770839      6.34453170208292      0.00319085296060
  S   -0.33931077491331      7.89499111564722      0.00459398187517
  C   2.21312675846377      7.65361172021633      0.00455618644187
  H   2.32708373157525      5.45719540720235      0.00236717197552
  C   1.23412236743454      8.62748838083786      0.00538263134646
  H   3.27206051729272      7.88637218386499      0.00489738839914
  C   -3.36895278997088     -2.11097395242565     -0.00039150693195
  C   -4.74891857530311     -2.16002241636835      0.00014091108923
  S   -2.71530071589988     -3.71813133187568     -0.00145538136852
  C   -5.26106554309834     -3.47632452300118     -0.00029568865606
  H   -5.36901492287468     -1.27066982838364      0.00086200589365
  C   -4.27718861047908     -4.42769217519881     -0.00116756532339
  H   -6.31778306491209     -3.71509141305075      0.00002931730656
  H   -4.38591134805513     -5.50320463411560     -0.00163825264490
  C   1.38044227890159     10.05731190378330      0.00677645709717
  C   0.39903527415517     11.02875566235133      0.00773123713149
  S   2.95038691198202     10.79578926744851      0.00745151127155
  C   0.91491905690463     12.34364534146336      0.00909714166159
  H   -0.65971923611273     10.79539354408539      0.00751732725734
  C   2.28314092178322     12.37608867472847      0.00912328891586
  H   0.29997869571232     13.23556920802360      0.01003502212500
  H   2.93152187313215     13.24104754619899      0.01002909996377
