106
Coordinates from ORCA-job PTB1-r2SCAN-3c-DEF2-TZVPD-TETRAMERO
  C   4.93444681850796     13.29695318271259    -14.30673899798753
  C   5.82224340661212     13.90420023571257    -15.17284757479506
  C   6.45071216968351     15.08354198514649    -14.75044212056099
  C   6.15582170902396     15.61005385231273    -13.45663599602377
  C   5.26792407222772     15.00233532749502    -12.58997295992749
  C   4.64000430556679     13.82334205857186    -13.01279500550292
  S   7.05237046148266     17.07105484181179    -13.16295497315686
  C   7.81176451493468     16.98458515296596    -14.74115167926763
  C   7.39005381854381     15.88580601887073    -15.44811662243860
  H   7.74423610626341     15.65558745323855    -16.44712000112830
  C   3.27306036625688     11.92025774616053    -13.02040656878422
  C   8.74550425166016     17.99473615845625    -15.14070514002105
  C   9.18990901332409     19.12277722553192    -14.47088535974004
  S   9.52948546639906     17.92792557771581    -16.69008117534835
  C   10.13975790359413     19.90847037486088    -15.20021999849506
  C   10.41642040924314     19.36729423628151    -16.43675413277830
  C   3.70063002439602     13.02231849321447    -12.31630664711701
  H   3.34777732930947     13.25582233946897    -11.31752609141105
  S   4.03640109716124     11.83728605025671    -14.59982489763715
  H   5.05497145496867     15.41729288710019    -11.60967292879572
  H   6.03555492726906     13.48976530201652    -16.15334887772413
  C   10.56541649640004     21.06108133189311    -14.46265669278002
  H   11.27822700813170     21.79286563633757    -14.82207529928629
  C   9.96685637451358     21.13310117073945    -13.25022356390751
  H   10.10697183535165     21.89676515048644    -12.49598223027918
  S   8.85670025227151     19.82566191877300    -12.91819850015862
  H   11.08756577153134     19.73595000147669    -17.19985884229715
  C   -2.73811169196224      8.47091071529838     -6.28358577395052
  C   -1.80600529805813      9.31117822662608     -6.85858441696748
  C   -1.36473301111131      9.01468659535329     -8.15618491148343
  C   -1.88726596087005      7.86834023936070     -8.82907813968961
  C   -2.81950570215701      7.02754537158236     -8.25324564130979
  C   -3.26063811414777      7.32490401358984     -6.95657674959387
  S   -1.19333983194062      7.70979754289384    -10.41593209101126
  C   -0.21718961169147      9.15037713998920    -10.18972058384117
  C   -0.42471300122286      9.71433458321042     -8.95228434554958
  H   0.08757101407628     10.61080068475447     -8.62007615743881
  C   -4.41170067696577      7.18614399545343     -4.92047328063860
  C   0.65355754974838      9.59854375116353    -11.22742783549806
  C   0.92229617127627      9.05717906673036    -12.47430738927504
  S   1.59410675193331     11.04723533477246    -11.03658164097616
  C   1.86453585015307      9.78793361510110    -13.25972381427450
  C   2.33672102191954     10.92604051931986    -12.60198673711434
  C   -4.19989753260223      6.62523701977599     -6.15948807248937
  H   -4.70801684053743      5.72693806241159     -6.49335835919896
  S   -3.43394540699673      8.62780045046250     -4.69803964415579
  H   -3.20509632648278      6.16004293678139     -8.77980452434517
  H   -1.41955449109209     10.17854576874872     -6.33234313812179
  C   2.08965685204612      9.16606270599492    -14.52953358799838
  C   1.35456511735104      8.03541207340588    -14.67899002978783
  H   1.33827842021105      7.37999317054570    -15.54008826092202
  S   0.35220069580173      7.64757614824457    -13.30990970550734
  H   2.75948138546472      9.52923557564740    -15.29705671229656
  C   -10.95443828954132      0.78499451103232     -1.81469664253758
  C   -10.05783639227436      1.38331742229541     -2.67701018499745
  C   -9.38725253234658      2.53302594278267     -2.23543777767755
  C   -9.65201566975416      3.03931786505885     -0.92642427446564
  C   -10.54957899664072      2.44069618279819     -0.06407111993187
  C   -11.21893132271521      1.29149589086582     -0.50592519823793
  S   -8.70585234288228      4.46328622206874     -0.60788867608033
  C   -7.96511590823814      4.38972902548626     -2.19696452982714
  C   -8.43089031606554      3.31897613322503     -2.92442498685011
  H   -8.09485944790164      3.10107364540877     -3.93241043298745
  C   -12.64560710725283     -0.56671099816225     -0.54097591491181
  C   -7.00562368400035      5.37041838467837     -2.58850980218147
  C   -6.50324284464727      6.46345359397411     -1.90048119864924
  S   -6.26057999578797      5.31108144499627     -4.15724492799461
  C   -5.53952656744935      7.23663172551878     -2.61584284804129
  C   -5.28994994952812      6.72722586570009     -3.89248002917428
  C   -12.17617091681052      0.50582968401783      0.18246452031554
  H   -12.51300643274217      0.72916349661494      1.18904631536589
  S   -11.90111772757957     -0.63905478324770     -2.12967859534349
  H   -10.73849924658421      2.83950399387994      0.92776926816218
  H   -9.86887057382950      0.98532001229604     -3.66923023631729
  C   -5.06806214586384      8.34331793160895     -1.83971672624712
  H   -4.33590217955531      9.07102007701886     -2.16221412849859
  C   -5.65101344948541      8.39017798660297     -0.61529124006683
  H   -5.47206603752824      9.12179433704928      0.16193651128611
  S   -6.79662633599189      7.11411330056776     -0.31907855544515
  C   -18.58747008867728     -4.07141404631569      6.23703753003608
  C   -17.65714204877244     -3.22579404954575      5.65779292687264
  C   -17.24895216758340     -3.49718826293394      4.34711438724443
  C   -17.79766402059519     -4.62156078052856      3.65970641411209
  C   -18.72671918694878     -5.46605097688969      4.23794311051517
  C   -19.13418817969485     -5.19450058340351      5.54789612413994
  S   -17.14061797505155     -4.75121469547477      2.05452222013340
  C   -16.14497060973681     -3.32565931702832      2.29164502720859
  C   -16.31833858639080     -2.78718212794401      3.54323547873831
  H   -15.79219304377025     -1.90159756037890      3.88287505743082
  C   -20.22727965394936     -5.35814389588226      7.59075762135736
  H   -20.87266465214256     -5.70528240136073      8.38658800081839
  C   -15.29124755706635     -2.86446677131210      1.24273668076125
  C   -15.09137773481827     -3.35658336848500     -0.03622464330654
  S   -14.28086217110904     -1.46946337469147      1.46587797162938
  C   -14.14896084850349     -2.62748564736665     -0.82369819550336
  C   -13.60581269490364     -1.54214578036209     -0.13295407095566
  C   -20.07121757967240     -5.90699491330361      6.35932234741713
  H   -20.60298569635835     -6.79165925980949      6.02863248033807
  S   -19.25010721960290     -3.94904723682202      7.84131032948406
  H   -19.13343333331161     -6.31662818724438      3.69945610013918
  H   -17.24981209444259     -2.37499550797476      6.19532546813110
  C   -14.00158443658371     -3.19349270814020     -2.13044847416640
  H   -13.34982679223700     -2.81832339806682     -2.90770471721244
  C   -14.78989356561275     -4.28432873238732     -2.30341621925285
  H   -14.86870363035411     -4.89426093794241     -3.19399986919250
  S   -15.75518271588506     -4.69756138936868     -0.91526325479733
